18

O     -1.304936   -0.414757   -3.061084
C     -0.771732   -0.100779   -1.999504
C     -0.425508   -1.151455   -0.981071
C      1.018295   -1.105908   -0.541596
O      1.193188   -0.721614    0.840760
C      0.783610    0.417403    1.434255
O      1.175771    0.694660    2.565263
C     -0.216970    1.297721    0.737925
C      0.231216    1.744742   -0.632871
O     -0.562744    1.199278   -1.710495
H     -1.141807   -1.126133   -0.156293
H     -0.586044   -2.112921   -1.488192
H      1.668654   -0.498011   -1.177473
H      1.424900   -2.122883   -0.594188
H     -1.203920    0.828970    0.751561
H     -0.302556    2.195111    1.366199
H      1.293157    1.582634   -0.839863
H      0.080670    2.828381   -0.706322
