 xtb: 6.7.1 (edcfbbe)
          06262515113D

 18 18  0     0  0            999 V2000
   -1.5406   -0.3404   -2.8859 O   0  0  0  0  0  0  0  0  0  0  0  0
   -0.8422   -0.0715   -1.9424 C   0  0  0  0  0  0  0  0  0  0  0  0
   -0.3805   -1.1650   -0.9865 C   0  0  0  0  0  0  0  0  0  0  0  0
    1.0772   -1.1005   -0.5209 C   0  0  0  0  0  0  0  0  0  0  0  0
    1.2759   -0.6878    0.8270 O   0  0  0  0  0  0  0  0  0  0  0  0
    0.7154    0.3523    1.4455 C   0  0  0  0  0  0  0  0  0  0  0  0
    0.9497    0.5003    2.6174 O   0  0  0  0  0  0  0  0  0  0  0  0
   -0.1946    1.3289    0.7102 C   0  0  0  0  0  0  0  0  0  0  0  0
    0.2489    1.7593   -0.6912 C   0  0  0  0  0  0  0  0  0  0  0  0
   -0.4956    1.2047   -1.7705 O   0  0  0  0  0  0  0  0  0  0  0  0
   -1.0470   -1.1992   -0.1208 H   0  0  0  0  0  0  0  0  0  0  0  0
   -0.5408   -2.0964   -1.5335 H   0  0  0  0  0  0  0  0  0  0  0  0
    1.6862   -0.4920   -1.1983 H   0  0  0  0  0  0  0  0  0  0  0  0
    1.4982   -2.1100   -0.5222 H   0  0  0  0  0  0  0  0  0  0  0  0
   -1.2095    0.9247    0.6721 H   0  0  0  0  0  0  0  0  0  0  0  0
   -0.2386    2.2073    1.3575 H   0  0  0  0  0  0  0  0  0  0  0  0
    1.3204    1.5879   -0.8412 H   0  0  0  0  0  0  0  0  0  0  0  0
    0.0707    2.8319   -0.8091 H   0  0  0  0  0  0  0  0  0  0  0  0
  1  2  2  0  0  0  0
  2  3  1  0  0  0  0
  3  4  1  0  0  0  0
  4  5  1  0  0  0  0
  5  6  1  0  0  0  0
  6  7  2  0  0  0  0
  6  8  1  0  0  0  0
  8  9  1  0  0  0  0
  2 10  1  0  0  0  0
  9 10  1  0  0  0  0
  3 11  1  0  0  0  0
  3 12  1  0  0  0  0
  4 13  1  0  0  0  0
  4 14  1  0  0  0  0
  8 15  1  0  0  0  0
  8 16  1  0  0  0  0
  9 17  1  0  0  0  0
  9 18  1  0  0  0  0
M  END
