9

O     -1.655710    2.048060    0.530149
C     -0.832272    1.200452    0.783816
C     -0.512790    0.243397    1.942793
C      0.630066   -0.183549    1.029583
O      0.206912    0.771955    0.021447
H     -0.220603    0.744928    2.866696
H     -1.282230   -0.508644    2.124175
H      0.578723   -1.210833    0.657991
H      1.635959    0.037557    1.397442
